288

Ga     1236.8379331884        1.5944984055        0.4327814153
Ga     1236.4316755750        0.0000000000        3.1537161916
 N     1235.9194678130        1.5944984055        2.1571352953
 N     1235.5132101996        0.0000000000        4.8780700716
Ga     1239.2754739937        3.1889984055        1.7311209597
Ga     1238.8692163803        1.5945000000        4.4520557360
 N     1238.3570086183        3.1889984055        3.4554748397
 N     1237.9507510049        1.5945000000        6.1764096160
Ga     1236.8379331884        3.1889984055        6.3074316815
Ga     1236.4316755750        1.5945000000        9.0283664578
 N     1235.9194678130        3.1889984055        8.0317855615
 N     1235.5132101996        1.5945000000       10.7527203378
Ga     1241.7130147990        1.5944984055        3.0294605041
Ga     1241.3067571856        0.0000000000        5.7503952804
 N     1240.7945494236        1.5944984055        4.7538143841
 N     1240.3882918102        0.0000000000        7.4747491603
Ga     1239.2754739937        1.5944984055        7.6057712259
Ga     1238.8692163803        0.0000000000       10.3267060022
 N     1238.3570086183        1.5944984055        9.3301251059
 N     1237.9507510049        0.0000000000        0.3017593498
Ga     1244.1505556043        3.1889984055        4.3278000485
Ga     1243.7442979909        1.5945000000        7.0487348247
 N     1243.2320902289        3.1889984055        6.0521539285
 N     1242.8258326155        1.5945000000        8.7730887047
Ga     1241.7130147990        3.1889984055        8.9041107703
Ga     1241.3067571856        1.5945000000       11.6250455465
 N     1240.7945494236        3.1889984055       10.6284646503
 N     1240.3882918102        1.5945000000        1.6000988941
Ga     1249.0256372149        1.5944984055        1.0498288711
Ga     1248.6193796015        0.0000000000        3.7707636473
 N     1248.1071718395        1.5944984055        2.7741827510
 N     1247.7009142261        0.0000000000        5.4951175273
Ga     1246.5880964096        1.5944984055        5.6261395929
Ga     1246.1818387962        0.0000000000        8.3470743691
 N     1245.6696310342        1.5944984055        7.3504934728
 N     1245.2633734208        0.0000000000       10.0714282491
Ga     1244.1505556043        1.5944984055       10.2024503147
Ga     1243.7442979909        0.0000000000        1.1740845586
 N     1243.2320902289        1.5944984055        0.1775036623
 N     1242.8258326155        0.0000000000        2.8984384385
Ga     1251.4631780202        3.1889984055        2.3481684154
Ga     1251.0569204068        1.5945000000        5.0691031917
 N     1250.5447126448        3.1889984055        4.0725222954
 N     1250.1384550314        1.5945000000        6.7934570717
Ga     1249.0256372149        3.1889984055        6.9244791373
Ga     1248.6193796015        1.5945000000        9.6454139135
 N     1248.1071718395        3.1889984055        8.6488330172
 N     1247.7009142261        1.5945000000       11.3697677935
Ga     1246.5880964096        3.1889984055       11.5007898591
Ga     1246.1818387962        1.5945000000        2.4724241029
 N     1245.6696310342        3.1889984055        1.4758432067
 N     1245.2633734208        1.5945000000        4.1967779829
Ga     1253.9007188255        1.5944984055        3.6465079598
Ga     1253.4944612121        0.0000000000        6.3674427361
 N     1252.9822534501        1.5944984055        5.3708618398
 N     1252.5759958367        0.0000000000        8.0917966161
Ga     1251.4631780202        1.5944984055        8.2228186816
Ga     1251.0569204068        0.0000000000       10.9437534579
 N     1250.5447126448        1.5944984055        9.9471725616
 N     1250.1384550314        0.0000000000        0.9188068055
Ga     1256.3382596308        3.1889984055        4.9448475042
Ga     1255.9320020174        1.5945000000        7.6657822805
 N     1255.4197942554        3.1889984055        6.6692013842
 N     1255.0135366420        1.5945000000        9.3901361604
Ga     1253.9007188255        3.1889984055        9.5211582260
Ga     1253.4944612121        1.5945000000        0.4927924699
 N     1252.9822534501        3.1889984055       11.2455121060
 N     1252.5759958367        1.5945000000        2.2171463499
Ga     1261.2133412414        1.5944984055        1.6668763268
Ga     1260.8070836280        0.0000000000        4.3878111030
 N     1260.2948758660        1.5944984055        3.3912302068
 N     1259.8886182526        0.0000000000        6.1121649830
Ga     1258.7758004361        1.5944984055        6.2431870486
Ga     1258.3695428227        0.0000000000        8.9641218248
 N     1257.8573350607        1.5944984055        7.9675409286
 N     1257.4510774473        0.0000000000       10.6884757048
Ga     1256.3382596308        1.5944984055       10.8194977704
Ga     1255.9320020174        0.0000000000        1.7911320143
 N     1255.4197942554        1.5944984055        0.7945511180
 N     1255.0135366420        0.0000000000        3.5154858943
Ga     1263.6508820467        3.1889984055        2.9652158712
Ga     1263.2446244333        1.5945000000        5.6861506474
 N     1262.7324166713        3.1889984055        4.6895697511
 N     1262.3261590579        1.5945000000        7.4105045274
Ga     1261.2133412414        3.1889984055        7.5415265930
Ga     1260.8070836280        1.5945000000       10.2624613692
 N     1260.2948758660        3.1889984055        9.2658804730
 N     1259.8886182526        1.5945000000        0.2375147168
Ga     1258.7758004361        3.1889984055        0.3685367824
Ga     1258.3695428227        1.5945000000        3.0894715587
 N     1257.8573350607        3.1889984055        2.0928906624
 N     1257.4510774473        1.5945000000        4.8138254386
Ga     1266.0884228520        1.5944984055        4.2635554156
Ga     1265.6821652386        0.0000000000        6.9844901918
 N     1265.1699574766        1.5944984055        5.9879092955
 N     1264.7636998632        0.0000000000        8.7088440718
Ga     1263.6508820467        1.5944984055        8.8398661374
Ga     1263.2446244333        0.0000000000       11.5608009136
 N     1262.7324166713        1.5944984055       10.5642200173
 N     1262.3261590579        0.0000000000        1.5358542612
Ga     1270.9635044626        3.1889984055        0.9855842381
Ga     1270.5572468492        1.5945000000        3.7065190144
 N     1270.0450390872        3.1889984055        2.7099381181
 N     1269.6387814738        1.5945000000        5.4308728944
Ga     1268.5259636573        3.1889984055        5.5618949599
Ga     1268.1197060439        1.5945000000        8.2828297362
 N     1267.6074982819        3.1889984055        7.2862488399
 N     1267.2012406685        1.5945000000       10.0071836162
Ga     1266.0884228520        3.1889984055       10.1382056817
Ga     1265.6821652386        1.5945000000        1.1098399256
 N     1265.1699574766        3.1889984055        0.1132590293
 N     1264.7636998632        1.5945000000        2.8341938056
Ga     1273.4010452679        1.5944984055        2.2839237825
Ga     1272.9947876545        0.0000000000        5.0048585588
 N     1272.4825798925        1.5944984055        4.0082776625
 N     1272.0763222791        0.0000000000        6.7292124387
Ga     1270.9635044626        1.5944984055        6.8602345043
Ga     1270.5572468492        0.0000000000        9.5811692806
 N     1270.0450390872        1.5944984055        8.5845883843
 N     1269.6387814738        0.0000000000       11.3055231605
Ga     1268.5259636573        1.5944984055       11.4365452261
Ga     1268.1197060439        0.0000000000        2.4081794700
 N     1267.6074982819        1.5944984055        1.4115985737
 N     1267.2012406685        0.0000000000        4.1325333500
Ga     1275.8385860732        3.1889984055        3.5822633269
In     1275.4323284598        1.5945000000        6.3031981031
 N     1274.9201206978        3.1889984055        5.3066172069
 N     1274.5138630844        1.5945000000        8.0275519831
Ga     1273.4010452679        3.1889984055        8.1585740487
Ga     1272.9947876545        1.5945000000       10.8795088249
 N     1272.4825798925        3.1889984055        9.8829279287
 N     1272.0763222791        1.5945000000        0.8545621725
In     1278.2761268785        1.5944984055        4.8806028713
Ga     1277.8698692651        0.0000000000        7.6015376475
 N     1277.3576615031        1.5944984055        6.6049567512
 N     1276.9514038897        0.0000000000        9.3258915275
Ga     1275.8385860732        1.5944984055        9.4569135931
Ga     1275.4323284598        0.0000000000        0.4285478370
 N     1274.9201206978        1.5944984055       11.1812674731
 N     1274.5138630844        0.0000000000        2.1529017169
In     1278.2761268785        3.1889984055       10.7552531375
Ga     1277.8698692651        1.5945000000        1.7268873813
 N     1277.3576615031        3.1889984055        0.7303064851
 N     1276.9514038897        1.5945000000        3.4512412613
Ga     1280.7136676838        1.5944984055        0.4327814153
Ga     1280.3074100704        0.0000000000        3.1537161916
 N     1279.7952023084        1.5944984055        2.1571352953
 N     1279.3889446950        0.0000000000        4.8780700716
Ga     1283.1512084891        3.1889984055        1.7311209597
In     1282.7449508757        1.5945000000        4.4520557360
 N     1282.2327431136        3.1889984055        3.4554748397
 N     1281.8264855003        1.5945000000        6.1764096160
Ga     1280.7136676838        3.1889984055        6.3074316815
Ga     1280.3074100704        1.5945000000        9.0283664578
 N     1279.7952023084        3.1889984055        8.0317855615
 N     1279.3889446950        1.5945000000       10.7527203378
Ga     1285.5887492944        1.5944984055        3.0294605041
Ga     1285.1824916810        0.0000000000        5.7503952804
 N     1284.6702839189        1.5944984055        4.7538143841
 N     1284.2640263056        0.0000000000        7.4747491603
Ga     1283.1512084891        1.5944984055        7.6057712259
Ga     1282.7449508757        0.0000000000       10.3267060022
 N     1282.2327431136        1.5944984055        9.3301251059
 N     1281.8264855003        0.0000000000        0.3017593498
In     1288.0262900997        3.1889984055        4.3278000485
Ga     1287.6200324863        1.5945000000        7.0487348247
 N     1287.1078247242        3.1889984055        6.0521539285
 N     1286.7015671109        1.5945000000        8.7730887047
In     1285.5887492944        3.1889984055        8.9041107703
Ga     1285.1824916810        1.5945000000       11.6250455465
 N     1284.6702839189        3.1889984055       10.6284646503
 N     1284.2640263056        1.5945000000        1.6000988941
Ga     1292.9013717103        1.5944984055        1.0498288711
In     1292.4951140969        0.0000000000        3.7707636473
 N     1291.9829063348        1.5944984055        2.7741827510
 N     1291.5766487214        0.0000000000        5.4951175273
Ga     1290.4638309050        1.5944984055        5.6261395929
Ga     1290.0575732916        0.0000000000        8.3470743691
 N     1289.5453655295        1.5944984055        7.3504934728
 N     1289.1391079161        0.0000000000       10.0714282491
Ga     1288.0262900997        1.5944984055       10.2024503147
Ga     1287.6200324863        0.0000000000        1.1740845586
 N     1287.1078247242        1.5944984055        0.1775036623
 N     1286.7015671109        0.0000000000        2.8984384385
Ga     1295.3389125156        3.1889984055        2.3481684154
In     1294.9326549022        1.5945000000        5.0691031917
 N     1294.4204471401        3.1889984055        4.0725222954
 N     1294.0141895267        1.5945000000        6.7934570717
Ga     1292.9013717103        3.1889984055        6.9244791373
In     1292.4951140969        1.5945000000        9.6454139135
 N     1291.9829063348        3.1889984055        8.6488330172
 N     1291.5766487214        1.5945000000       11.3697677935
Ga     1290.4638309050        3.1889984055       11.5007898591
Ga     1290.0575732916        1.5945000000        2.4724241029
 N     1289.5453655295        3.1889984055        1.4758432067
 N     1289.1391079161        1.5945000000        4.1967779829
In     1297.7764533209        1.5944984055        3.6465079598
Ga     1297.3701957075        0.0000000000        6.3674427361
 N     1296.8579879454        1.5944984055        5.3708618398
 N     1296.4517303320        0.0000000000        8.0917966161
Ga     1295.3389125156        1.5944984055        8.2228186816
Ga     1294.9326549022        0.0000000000       10.9437534579
 N     1294.4204471401        1.5944984055        9.9471725616
 N     1294.0141895267        0.0000000000        0.9188068055
Ga     1300.2139941262        3.1889984055        4.9448475042
Ga     1299.8077365128        1.5945000000        7.6657822805
 N     1299.2955287507        3.1889984055        6.6692013842
 N     1298.8892711373        1.5945000000        9.3901361604
Ga     1297.7764533209        3.1889984055        9.5211582260
Ga     1297.3701957075        1.5945000000        0.4927924699
 N     1296.8579879454        3.1889984055       11.2455121060
 N     1296.4517303320        1.5945000000        2.2171463499
Ga     1305.0890757368        1.5944984055        1.6668763268
Ga     1304.6828181234        0.0000000000        4.3878111030
 N     1304.1706103613        1.5944984055        3.3912302068
 N     1303.7643527479        0.0000000000        6.1121649830
Ga     1302.6515349315        1.5944984055        6.2431870486
Ga     1302.2452773181        0.0000000000        8.9641218248
 N     1301.7330695560        1.5944984055        7.9675409286
 N     1301.3268119426        0.0000000000       10.6884757048
Ga     1300.2139941262        1.5944984055       10.8194977704
In     1299.8077365128        0.0000000000        1.7911320143
 N     1299.2955287507        1.5944984055        0.7945511180
 N     1298.8892711373        0.0000000000        3.5154858943
Ga     1307.5266165421        3.1889984055        2.9652158712
Ga     1307.1203589287        1.5945000000        5.6861506474
 N     1306.6081511666        3.1889984055        4.6895697511
 N     1306.2018935532        1.5945000000        7.4105045274
Ga     1305.0890757368        3.1889984055        7.5415265930
Ga     1304.6828181234        1.5945000000       10.2624613692
 N     1304.1706103613        3.1889984055        9.2658804730
 N     1303.7643527479        1.5945000000        0.2375147168
Ga     1302.6515349315        3.1889984055        0.3685367824
Ga     1302.2452773181        1.5945000000        3.0894715587
 N     1301.7330695560        3.1889984055        2.0928906624
 N     1301.3268119426        1.5945000000        4.8138254386
Ga     1309.9641573474        1.5944984055        4.2635554156
Ga     1309.5578997340        0.0000000000        6.9844901918
 N     1309.0456919719        1.5944984055        5.9879092955
 N     1308.6394343585        0.0000000000        8.7088440718
Ga     1307.5266165421        1.5944984055        8.8398661374
Ga     1307.1203589287        0.0000000000       11.5608009136
 N     1306.6081511666        1.5944984055       10.5642200173
 N     1306.2018935532        0.0000000000        1.5358542612
Ga     1314.8392389580        3.1889984055        0.9855842381
Ga     1314.4329813446        1.5945000000        3.7065190144
 N     1313.9207735825        3.1889984055        2.7099381181
 N     1313.5145159691        1.5945000000        5.4308728944
Ga     1312.4016981527        3.1889984055        5.5618949599
Ga     1311.9954405393        1.5945000000        8.2828297362
 N     1311.4832327772        3.1889984055        7.2862488399
 N     1311.0769751638        1.5945000000       10.0071836162
Ga     1309.9641573474        3.1889984055       10.1382056817
Ga     1309.5578997340        1.5945000000        1.1098399256
 N     1309.0456919719        3.1889984055        0.1132590293
 N     1308.6394343585        1.5945000000        2.8341938056
Ga     1317.2767797633        1.5944984055        2.2839237825
Ga     1316.8705221499        0.0000000000        5.0048585588
 N     1316.3583143878        1.5944984055        4.0082776625
 N     1315.9520567744        0.0000000000        6.7292124387
Ga     1314.8392389580        1.5944984055        6.8602345043
Ga     1314.4329813446        0.0000000000        9.5811692806
 N     1313.9207735825        1.5944984055        8.5845883843
 N     1313.5145159691        0.0000000000       11.3055231605
Ga     1312.4016981527        1.5944984055       11.4365452261
Ga     1311.9954405393        0.0000000000        2.4081794700
 N     1311.4832327772        1.5944984055        1.4115985737
 N     1311.0769751638        0.0000000000        4.1325333500
Ga     1319.7143205686        3.1889984055        3.5822633269
Ga     1319.3080629552        1.5945000000        6.3031981031
 N     1318.7958551931        3.1889984055        5.3066172069
 N     1318.3895975797        1.5945000000        8.0275519831
Ga     1317.2767797633        3.1889984055        8.1585740487
Ga     1316.8705221499        1.5945000000       10.8795088249
 N     1316.3583143878        3.1889984055        9.8829279287
 N     1315.9520567744        1.5945000000        0.8545621725
Ga     1322.1518613739        1.5944984055        4.8806028713
Ga     1321.7456037605        0.0000000000        7.6015376475
 N     1321.2333959984        1.5944984055        6.6049567512
 N     1320.8271383850        0.0000000000        9.3258915275
Ga     1319.7143205686        1.5944984055        9.4569135931
Ga     1319.3080629552        0.0000000000        0.4285478370
 N     1318.7958551931        1.5944984055       11.1812674731
 N     1318.3895975797        0.0000000000        2.1529017169
Ga     1322.1518613739        3.1889984055       10.7552531375
Ga     1321.7456037605        1.5945000000        1.7268873813
 N     1321.2333959984        3.1889984055        0.7303064851
 N     1320.8271383850        1.5945000000        3.4512412613
